4
Properties=species:S:1:pos:R:3:move_mask:L:1:forces:R:3 energy=-306.522469099077 pbc="F F F"
N        0.00000000       0.00000000       0.00000000  F       2.90252615      -0.00004789       0.00000000
H        0.77207128       1.78344549       0.00000000  T      -0.96754416      -3.22202770      -0.00000000
H        0.77207128      -0.89172275       1.54450910  T      -0.96745584       1.61106113      -2.79040444
H        0.77207128      -0.89172275      -1.54450910  T      -0.96745584       1.61106113       2.79040444
