4
Properties=species:S:1:pos:R:3:move_mask:L:1:forces:R:3 energy=-307.0585452399772 pbc="F F F"
N        0.00000000       0.00000000       0.00000000  F       0.22439198       0.00016761       0.00000000
H        0.44494181       1.78344549       0.00000000  T      -0.07481852      -3.55906411      -0.00000000
H        0.44494181      -0.89172275       1.54450910  T      -0.07481951       1.77942942      -3.08217096
H        0.44494181      -0.89172275      -1.54450910  T      -0.07481951       1.77942942       3.08217096
