4
Properties=species:S:1:pos:R:3:move_mask:L:1:forces:R:3 energy=-305.4809395787651 pbc="F F F"
N        0.00000000       0.00000000       0.00000000  F       2.24785624       0.00001745      -0.00000000
H        0.74845635       1.90298520       0.00000000  T      -0.74931387      -2.92265450      -0.00000000
H        0.74845635      -0.95149260       1.64803352  T      -0.74924213       1.46135503      -2.53109884
H        0.74845635      -0.95149260      -1.64803352  T      -0.74924213       1.46135503       2.53109884
