4
Properties=species:S:1:pos:R:3:move_mask:L:1:forces:R:3 energy=-305.24956815281513 pbc="F F F"
N        0.00000000       0.00000000       0.00000000  F       1.76039154       0.00003616       0.00000000
H        0.68839443       1.94339185       0.00000000  T      -0.58682572      -2.87571024       0.00000000
H        0.68839443      -0.97169592       1.68302671  T      -0.58680871       1.43784464      -2.49042226
H        0.68839443      -0.97169592      -1.68302671  T      -0.58680871       1.43784464       2.49042226
